155903693
  -OEChem-10052607533D

 20 20  0     1  0  0  0  0  0999 V2000
    0.6094   -1.3105    0.1175 O   0  0  0  0  0  0  0  0  0  0  0  0
    0.1065    2.2180    0.4405 O   0  0  0  0  0  0  0  0  0  0  0  0
   -2.1230   -1.6834    0.3931 O   0  0  0  0  0  0  0  0  0  0  0  0
   -3.8769    0.3047   -0.4871 O   0  0  0  0  0  0  0  0  0  0  0  0
    2.8108    1.2940   -0.0860 O   0  0  0  0  0  0  0  0  0  0  0  0
    2.8972   -1.5349   -0.1901 O   0  0  0  0  0  0  0  0  0  0  0  0
   -0.2658   -0.1955    0.3868 C   0  0  1  0  0  0  0  0  0  0  0  0
    0.3911    1.0256   -0.2382 C   0  0  2  0  0  0  0  0  0  0  0  0
   -1.6344   -0.4862   -0.2072 C   0  0  2  0  0  0  0  0  0  0  0  0
    1.8133    0.6050   -0.1255 C   0  0  0  0  0  0  0  0  0  0  0  0
   -2.6107    0.6497    0.0641 C   0  0  0  0  0  0  0  0  0  0  0  0
    1.8825   -0.8864   -0.0680 C   0  0  0  0  0  0  0  0  0  0  0  0
   -0.3455   -0.1062    1.4788 H   0  0  0  0  0  0  0  0  0  0  0  0
    0.1490    1.1279   -1.3021 H   0  0  0  0  0  0  0  0  0  0  0  0
   -1.5622   -0.6918   -1.2817 H   0  0  0  0  0  0  0  0  0  0  0  0
   -2.7494    0.8012    1.1396 H   0  0  0  0  0  0  0  0  0  0  0  0
   -2.2908    1.5862   -0.3998 H   0  0  0  0  0  0  0  0  0  0  0  0
    0.5840    2.9348   -0.0107 H   0  0  0  0  0  0  0  0  0  0  0  0
   -3.0100   -1.8502    0.0309 H   0  0  0  0  0  0  0  0  0  0  0  0
   -4.4820    1.0411   -0.2942 H   0  0  0  0  0  0  0  0  0  0  0  0
  1  7  1  0  0  0  0
  1 12  1  0  0  0  0
  2  8  1  0  0  0  0
  2 18  1  0  0  0  0
  3  9  1  0  0  0  0
  3 19  1  0  0  0  0
  4 11  1  0  0  0  0
  4 20  1  0  0  0  0
  5 10  2  0  0  0  0
  6 12  2  0  0  0  0
  7  8  1  0  0  0  0
  7  9  1  0  0  0  0
  7 13  1  0  0  0  0
  8 10  1  0  0  0  0
  8 14  1  0  0  0  0
  9 11  1  0  0  0  0
  9 15  1  0  0  0  0
 10 12  1  0  0  0  0
 11 16  1  0  0  0  0
 11 17  1  0  0  0  0
M  END
> <PUBCHEM_COMPOUND_CID>
155903693

> <PUBCHEM_CONFORMER_RMSD>
0.6

> <PUBCHEM_CONFORMER_DIVERSEORDER>
1
10
2
11
15
14
6
3
7
9
12
13
4
5
8

> <PUBCHEM_MMFF94_PARTIAL_CHARGES>
15
1 -0.43
10 0.51
11 0.28
12 0.72
18 0.4
19 0.4
2 -0.68
20 0.4
3 -0.68
4 -0.68
5 -0.57
6 -0.57
7 0.28
8 0.34
9 0.28

> <PUBCHEM_EFFECTIVE_ROTOR_COUNT>
2.6

> <PUBCHEM_PHARMACOPHORE_FEATURES>
9
1 2 acceptor
1 2 donor
1 3 acceptor
1 3 donor
1 4 acceptor
1 4 donor
1 5 acceptor
1 6 acceptor
5 1 7 8 10 12 rings

> <PUBCHEM_HEAVY_ATOM_COUNT>
12

> <PUBCHEM_ATOM_DEF_STEREO_COUNT>
3

> <PUBCHEM_ATOM_UDEF_STEREO_COUNT>
0

> <PUBCHEM_BOND_DEF_STEREO_COUNT>
0

> <PUBCHEM_BOND_UDEF_STEREO_COUNT>
0

> <PUBCHEM_ISOTOPIC_ATOM_COUNT>
0

> <PUBCHEM_COMPONENT_COUNT>
1

> <PUBCHEM_CACTVS_TAUTO_COUNT>
-1

> <PUBCHEM_CONFORMER_ID>
094AE6CD00000001

> <PUBCHEM_MMFF94_ENERGY>
20.7783

> <PUBCHEM_FEATURE_SELFOVERLAP>
45.686

> <PUBCHEM_SHAPE_FINGERPRINT>
10130415 120 18337950099744182619
10219947 1 18272370849813370455
10608611 8 18335699481357889341
10967382 1 18410575080378661136
11471102 20 18410006624662366333
12423570 1 17749947890127809772
124424 183 18114458968257306435
12897270 3 18411142437074094694
13380535 21 18335712692571621327
13380535 76 18336541724085834867
14325111 11 18408886265142048575
14617773 55 17916878901978338384
14648413 74 18264205988256104881
14897335 6 18410850001446294213
15219456 202 18335424607482116611
15477762 27 18270674381002883471
16945 1 18266184928681287642
17844478 74 17822303361801912529
17990270 104 18336828705247613770
18186145 218 18187925032737975789
18619055 16 18410011026660862383
193761 8 16682321249254087128
19973954 147 18336550533374936803
20201158 50 18409445890526895797
20606313 2 18410849967134210589
20645477 70 18412540990490941903
20871998 22 18055638304828618662
21040471 1 18193277627087933482
21501502 16 18336545031442923719
23402539 116 18058155151521536029
23402655 69 18341039762474433941
23552423 10 18260835890669719822
23559900 14 18410857638737208862
2748010 2 18410863199838863134
29004967 10 18411140281058514922
528886 8 18411132562838734280
53812653 166 18269552900200851856
63268167 104 18411986879184186993
81228 2 18052548677006426840
8809292 202 18260835877473913131

> <PUBCHEM_SHAPE_MULTIPOLES>
211.74
4.69
1.79
0.64
2.24
0.21
0
-0.33
0.61
-0.57
-0.17
0.09
0.02
0.13

> <PUBCHEM_SHAPE_SELFOVERLAP>
434.272

> <PUBCHEM_SHAPE_VOLUME>
122.8

> <PUBCHEM_COORDINATE_TYPE>
2
5
10

$$$$
